LAMMPS (29 Aug 2024 - Update 2)
# LAMMPS Input: Melt Lower Half (Impurities) and Cool, Solid (Ge) on Top

units           metal
dimension       3
boundary        p p f
atom_style      atomic

read_data       data.ge_solid_liquid_impurities.lammps
Reading data file ...
  orthogonal box = (0 0 0) to (22.632 22.632 45.264)
  reading atoms ...
  1024 atoms

# ---------- Define Potential ----------
pair_style      sw
pair_coeff      * * Ge_B_Al_Ga_P_full.sw Ge B Al Ga P

# ---------- Group Definitions ----------
region          bottom block INF INF INF INF INF 22.6 units box  # Melt (impurities)
region          top block INF INF INF INF 22.6 INF units box      # Solid Ge

group           melt region bottom
512 atoms in group melt
group           solid region top
512 atoms in group solid
group           impurities type 2 3 4 5
102 atoms in group impurities

# ---------- Velocity Initialization ----------
velocity        melt create 2000.0 4928459 dist gaussian mom yes rot yes

# ---------- Neighbor Setup ----------
neighbor        2.0 bin
neigh_modify    delay 0 every 1 check yes

# ---------- Thermo Output ----------
thermo          100
thermo_style    custom step temp pe ke etotal press
thermo_modify   lost ignore

# ---------- Boundary Wall to Prevent Atom Escape ----------
fix             wall all wall/reflect zlo EDGE

# ---------- Dump Configuration ----------
dump            1 all custom 500 dump.melt.lammpstrj id type x y z vx vy vz

# ---------- Time Step ----------
timestep        0.001

# ---------- Melt Phase ----------
fix             ensemble1 melt nvt temp 2000.0 2000.0 0.1
run             25000  # 25 ps of heating at 2000 K
Step          Temp          PotEng         KinEng         TotEng         Press
0   999.02248     -3386.8881      132.10387     -3254.7843      304361.47
Averages over the last 126 of 251 rows, steps 12500 to 25000:
Temp PotEng KinEng TotEng Press
1003.72 -3338.98 132.725 -3206.25 351218
Loop time of 69.4226 on 1 procs for 25000 steps with 1024 atoms

unfix           ensemble1

# ---------- Cooldown Phase ----------
fix             ensemble2 melt nvt temp 2000.0 1000.0 0.1
run             25000  # 25 ps of cooling to 1000 K
Step          Temp          PotEng         KinEng         TotEng         Press
25000   1046.2819     -3345.2324      138.35313     -3206.8793      351317.09
Averages over the last 126 of 251 rows, steps 37500 to 50000:
Temp PotEng KinEng TotEng Press
630.786 -3404.34 83.4107 -3320.93 332749
Loop time of 71.0606 on 1 procs for 25000 steps with 1024 atoms

unfix           ensemble2

# ---------- Save Final State ----------
write_data      post_melt_cooldown_1.data
System init for write_data ...
write_restart   post_melt_cooldown_1.restart
System init for write_restart ...
